/*--------------------------------*- C++ -*----------------------------------*\
| =========                 |                                                 |
| \\      /  F ield         | OpenFOAM: The Open Source CFD Toolbox           |
|  \\    /   O peration     | Version:  v2012                                 |
|   \\  /    A nd           | Website:  www.openfoam.com                      |
|    \\/     M anipulation  |                                                 |
\*---------------------------------------------------------------------------*/
FoamFile
{
    version     2.0;
    format      ascii;
    class       volVectorField;
    location    "0";
    object      U;
}
// * * * * * * * * * * * * * * * * * * * * * * * * * * * * * * * * * * * * * //

#include        "include/initialConditions"

dimensions      [0 1 -1 0 0 0 0];

internalField   uniform $flowVelocity;

boundaryField
{
    #includeEtc "caseDicts/setConstraintTypes"

    #include "include/fixedInlet"

    inlet
    {
        type            fixedValue;
        value           uniform (50 0 0);  // 设定一个速度入口
    }

    outlet
    {
        type            zeroGradient;  // 允许流体自由流出
    }

    topBottom
    {
        type            noSlip;
    }

    wall
    {
        type            noSlip;  // 三角形壁面无滑移
    }

    frontAndBack
    {
        type            empty;  // 确保二维计算
    }

    #include "include/frontBackUpperPatches"
}


// ************************************************************************* //

